
     RDKit          3D

 55 58  0  0  0  0  0  0  0  0999 V2000
    0.3072   -4.7003    4.1795 C   0  0  0  0  0  0  0  0  0  0  0  0
    0.5830   -3.9064    3.0424 O   0  0  0  0  0  0  0  0  0  0  0  0
   -0.3850   -3.0285    2.5289 C   0  0  0  0  0  0  0  0  0  0  0  0
   -1.6205   -2.8956    3.0860 C   0  0  0  0  0  0  0  0  0  0  0  0
   -2.5384   -2.0138    2.5387 C   0  0  0  0  0  0  0  0  0  0  0  0
   -3.7617   -1.8710    3.0731 N   0  0  0  0  0  0  0  0  0  0  0  0
   -4.6826   -1.0308    2.5745 C   0  0  0  0  0  0  0  0  0  0  0  0
   -4.3437   -0.3125    1.4948 N   0  0  0  0  0  0  0  0  0  0  0  0
   -3.1516   -0.3697    0.8736 C   0  0  0  0  0  0  0  0  0  0  0  0
   -2.8476    0.4418   -0.2302 N   0  0  0  0  0  0  0  0  0  0  0  0
   -3.8168    1.2994   -0.7986 C   0  0  0  0  0  0  0  0  0  0  0  0
   -5.1644    1.1186   -0.8418 C   0  0  0  0  0  0  0  0  0  0  0  0
   -6.0349    2.0576   -1.4047 C   0  0  0  0  0  0  0  0  0  0  0  0
   -5.5081    3.1988   -1.9315 C   0  0  0  0  0  0  0  0  0  0  0  0
   -6.3348    4.1128   -2.4772 F   0  0  0  0  0  0  0  0  0  0  0  0
   -4.1683    3.4274   -1.9145 C   0  0  0  0  0  0  0  0  0  0  0  0
   -3.4522    4.8867   -2.5846 Cl  0  0  0  0  0  0  0  0  0  0  0  0
   -3.3386    2.4905   -1.3562 C   0  0  0  0  0  0  0  0  0  0  0  0
   -2.2205   -1.2435    1.4069 C   0  0  0  0  0  0  0  0  0  0  0  0
   -0.9893   -1.3693    0.8422 C   0  0  0  0  0  0  0  0  0  0  0  0
   -0.0652   -2.2570    1.3951 C   0  0  0  0  0  0  0  0  0  0  0  0
    1.1686   -2.4163    0.8785 O   0  0  0  0  0  0  0  0  0  0  0  0
    1.8604   -1.8403   -0.1615 C   0  0  0  0  0  0  0  0  0  0  0  0
    2.1666   -0.3674   -0.0277 C   0  0  0  0  0  0  0  0  0  0  0  0
    2.9185    0.1052   -1.2557 C   0  0  0  0  0  0  0  0  0  0  0  0
    3.2490    1.4946   -1.2119 N   0  0  0  0  0  0  0  0  0  0  0  0
    4.2323    1.8268   -0.2077 C   0  0  0  0  0  0  0  0  0  0  0  0
    5.6163    1.3684   -0.5207 C   0  0  0  0  0  0  0  0  0  0  0  0
    5.7589    1.0784   -1.8740 O   0  0  0  0  0  0  0  0  0  0  0  0
    5.1744    2.1255   -2.5859 C   0  0  0  0  0  0  0  0  0  0  0  0
    3.6728    1.9361   -2.5253 C   0  0  0  0  0  0  0  0  0  0  0  0
    0.9783   -5.5920    4.2006 H   0  0  0  0  0  0  0  0  0  0  0  0
    0.4206   -4.1073    5.1222 H   0  0  0  0  0  0  0  0  0  0  0  0
   -0.7292   -5.0858    4.1783 H   0  0  0  0  0  0  0  0  0  0  0  0
   -1.9263   -3.4521    3.9480 H   0  0  0  0  0  0  0  0  0  0  0  0
   -5.6569   -0.9468    3.0366 H   0  0  0  0  0  0  0  0  0  0  0  0
   -1.8799    0.4504   -0.6855 H   0  0  0  0  0  0  0  0  0  0  0  0
   -5.6297    0.2161   -0.4570 H   0  0  0  0  0  0  0  0  0  0  0  0
   -7.1042    1.8588   -1.4103 H   0  0  0  0  0  0  0  0  0  0  0  0
   -2.2655    2.6895   -1.3508 H   0  0  0  0  0  0  0  0  0  0  0  0
   -0.7377   -0.8085   -0.0366 H   0  0  0  0  0  0  0  0  0  0  0  0
    2.8207   -2.3735   -0.3991 H   0  0  0  0  0  0  0  0  0  0  0  0
    1.2627   -2.0018   -1.1196 H   0  0  0  0  0  0  0  0  0  0  0  0
    2.7883   -0.1888    0.9041 H   0  0  0  0  0  0  0  0  0  0  0  0
    1.2529    0.1973    0.1438 H   0  0  0  0  0  0  0  0  0  0  0  0
    3.7865   -0.5502   -1.4689 H   0  0  0  0  0  0  0  0  0  0  0  0
    2.2199   -0.0423   -2.1145 H   0  0  0  0  0  0  0  0  0  0  0  0
    3.9461    1.4779    0.7808 H   0  0  0  0  0  0  0  0  0  0  0  0
    4.2653    2.9521   -0.1674 H   0  0  0  0  0  0  0  0  0  0  0  0
    6.3953    2.1403   -0.2670 H   0  0  0  0  0  0  0  0  0  0  0  0
    5.9038    0.4695    0.0864 H   0  0  0  0  0  0  0  0  0  0  0  0
    5.5636    2.1309   -3.6027 H   0  0  0  0  0  0  0  0  0  0  0  0
    5.4556    3.0627   -2.0498 H   0  0  0  0  0  0  0  0  0  0  0  0
    3.3838    1.2407   -3.3102 H   0  0  0  0  0  0  0  0  0  0  0  0
    3.2020    2.9166   -2.7146 H   0  0  0  0  0  0  0  0  0  0  0  0
  1  2  1  0
  2  3  1  0
  3  4  2  0
  4  5  1  0
  5  6  2  0
  6  7  1  0
  7  8  2  0
  8  9  1  0
  9 10  1  0
 10 11  1  0
 11 12  2  0
 12 13  1  0
 13 14  2  0
 14 15  1  0
 14 16  1  0
 16 17  1  0
 16 18  2  0
  9 19  2  0
 19 20  1  0
 20 21  2  0
 21 22  1  0
 22 23  1  0
 23 24  1  0
 24 25  1  0
 25 26  1  0
 26 27  1  0
 27 28  1  0
 28 29  1  0
 29 30  1  0
 30 31  1  0
 21  3  1  0
 31 26  1  0
 19  5  1  0
 18 11  1  0
  1 32  1  0
  1 33  1  0
  1 34  1  0
  4 35  1  0
  7 36  1  0
 10 37  1  0
 12 38  1  0
 13 39  1  0
 18 40  1  0
 20 41  1  0
 23 42  1  0
 23 43  1  0
 24 44  1  0
 24 45  1  0
 25 46  1  0
 25 47  1  0
 27 48  1  0
 27 49  1  0
 28 50  1  0
 28 51  1  0
 30 52  1  0
 30 53  1  0
 31 54  1  0
 31 55  1  0
M  END
$$$$
