
     RDKit          3D

 55 58  0  0  0  0  0  0  0  0999 V2000
   -1.3333   -4.7916    1.0621 C   0  0  0  0  0  0  0  0  0  0  0  0
   -1.3194   -3.3839    0.8099 O   0  0  0  0  0  0  0  0  0  0  0  0
   -0.0713   -2.7493    0.7320 C   0  0  0  0  0  0  0  0  0  0  0  0
    1.1013   -3.4501    0.8922 C   0  0  0  0  0  0  0  0  0  0  0  0
    2.3323   -2.8145    0.8133 C   0  0  0  0  0  0  0  0  0  0  0  0
    3.4648   -3.5249    0.9718 N   0  0  0  0  0  0  0  0  0  0  0  0
    4.6803   -2.9474    0.9009 C   0  0  0  0  0  0  0  0  0  0  0  0
    4.7839   -1.6262    0.6659 N   0  0  0  0  0  0  0  0  0  0  0  0
    3.7049   -0.8428    0.4960 C   0  0  0  0  0  0  0  0  0  0  0  0
    3.8359    0.5379    0.2706 N   0  0  0  0  0  0  0  0  0  0  0  0
    5.0374    1.2751    0.1466 C   0  0  0  0  0  0  0  0  0  0  0  0
    5.0070    2.6790    0.2501 C   0  0  0  0  0  0  0  0  0  0  0  0
    6.1263    3.4532    0.1203 C   0  0  0  0  0  0  0  0  0  0  0  0
    7.3360    2.8244   -0.1227 C   0  0  0  0  0  0  0  0  0  0  0  0
    8.4348    3.5959   -0.2490 F   0  0  0  0  0  0  0  0  0  0  0  0
    7.3737    1.4508   -0.2254 C   0  0  0  0  0  0  0  0  0  0  0  0
    8.9025    0.6811   -0.5311 Cl  0  0  0  0  0  0  0  0  0  0  0  0
    6.2361    0.6672   -0.0935 C   0  0  0  0  0  0  0  0  0  0  0  0
    2.4528   -1.4616    0.5734 C   0  0  0  0  0  0  0  0  0  0  0  0
    1.2817   -0.7594    0.4133 C   0  0  0  0  0  0  0  0  0  0  0  0
    0.0349   -1.4002    0.4923 C   0  0  0  0  0  0  0  0  0  0  0  0
   -1.1209   -0.6721    0.3276 O   0  0  0  0  0  0  0  0  0  0  0  0
   -1.1707    0.7186    0.0766 C   0  0  0  0  0  0  0  0  0  0  0  0
   -2.6396    1.0935   -0.0400 C   0  0  0  0  0  0  0  0  0  0  0  0
   -3.3133    0.3530   -1.1573 C   0  0  0  0  0  0  0  0  0  0  0  0
   -4.6891    0.7091   -1.2651 N   0  0  0  0  0  0  0  0  0  0  0  0
   -4.8876    2.0443   -1.7190 C   0  0  0  0  0  0  0  0  0  0  0  0
   -5.9691    2.7693   -0.9373 C   0  0  0  0  0  0  0  0  0  0  0  0
   -7.1167    2.0214   -0.7867 O   0  0  0  0  0  0  0  0  0  0  0  0
   -6.9181    0.7085   -0.4317 C   0  0  0  0  0  0  0  0  0  0  0  0
   -5.4723    0.3878   -0.1159 C   0  0  0  0  0  0  0  0  0  0  0  0
   -2.3685   -5.1836    1.0401 H   0  0  0  0  0  0  0  0  0  0  0  0
   -0.8067   -5.0379    2.0154 H   0  0  0  0  0  0  0  0  0  0  0  0
   -0.7681   -5.3282    0.2624 H   0  0  0  0  0  0  0  0  0  0  0  0
    1.0357   -4.5169    1.0825 H   0  0  0  0  0  0  0  0  0  0  0  0
    5.5271   -3.5879    1.0390 H   0  0  0  0  0  0  0  0  0  0  0  0
    2.9583    1.1128    0.1786 H   0  0  0  0  0  0  0  0  0  0  0  0
    4.0375    3.1368    0.4427 H   0  0  0  0  0  0  0  0  0  0  0  0
    6.0919    4.5269    0.2007 H   0  0  0  0  0  0  0  0  0  0  0  0
    6.3773   -0.3841   -0.2019 H   0  0  0  0  0  0  0  0  0  0  0  0
    1.3198    0.3018    0.2229 H   0  0  0  0  0  0  0  0  0  0  0  0
   -0.6018    1.0273   -0.8069 H   0  0  0  0  0  0  0  0  0  0  0  0
   -0.7488    1.2505    0.9645 H   0  0  0  0  0  0  0  0  0  0  0  0
   -2.6756    2.1921   -0.1314 H   0  0  0  0  0  0  0  0  0  0  0  0
   -3.1562    0.8499    0.9183 H   0  0  0  0  0  0  0  0  0  0  0  0
   -2.7754    0.4817   -2.1289 H   0  0  0  0  0  0  0  0  0  0  0  0
   -3.2693   -0.7512   -0.9501 H   0  0  0  0  0  0  0  0  0  0  0  0
   -3.9561    2.6197   -1.6064 H   0  0  0  0  0  0  0  0  0  0  0  0
   -5.1472    2.0522   -2.7998 H   0  0  0  0  0  0  0  0  0  0  0  0
   -5.5641    3.1327    0.0235 H   0  0  0  0  0  0  0  0  0  0  0  0
   -6.2397    3.6667   -1.5479 H   0  0  0  0  0  0  0  0  0  0  0  0
   -7.2089    0.0529   -1.2922 H   0  0  0  0  0  0  0  0  0  0  0  0
   -7.6001    0.4605    0.4169 H   0  0  0  0  0  0  0  0  0  0  0  0
   -5.1690    1.0446    0.7314 H   0  0  0  0  0  0  0  0  0  0  0  0
   -5.3971   -0.6650    0.1578 H   0  0  0  0  0  0  0  0  0  0  0  0
  1  2  1  0
  2  3  1  0
  3  4  2  0
  4  5  1  0
  5  6  2  0
  6  7  1  0
  7  8  2  0
  8  9  1  0
  9 10  1  0
 10 11  1  0
 11 12  2  0
 12 13  1  0
 13 14  2  0
 14 15  1  0
 14 16  1  0
 16 17  1  0
 16 18  2  0
  9 19  2  0
 19 20  1  0
 20 21  2  0
 21 22  1  0
 22 23  1  0
 23 24  1  0
 24 25  1  0
 25 26  1  0
 26 27  1  0
 27 28  1  0
 28 29  1  0
 29 30  1  0
 30 31  1  0
 21  3  1  0
 31 26  1  0
 19  5  1  0
 18 11  1  0
  1 32  1  0
  1 33  1  0
  1 34  1  0
  4 35  1  0
  7 36  1  0
 10 37  1  0
 12 38  1  0
 13 39  1  0
 18 40  1  0
 20 41  1  0
 23 42  1  0
 23 43  1  0
 24 44  1  0
 24 45  1  0
 25 46  1  0
 25 47  1  0
 27 48  1  0
 27 49  1  0
 28 50  1  0
 28 51  1  0
 30 52  1  0
 30 53  1  0
 31 54  1  0
 31 55  1  0
M  END
$$$$
